VERSION 18
*******************************************************************************
*** TRNSYS input file (deck) generated by TrnsysStudio
*** on Thursday, February 23, 2023 at 12:03
*** from TrnsysStudio project: C:\users\gmooneybeaupre\My Documents\trnsys\devoir3_h23\devoir3_question4.tpf
*** 
*** If you edit this file, use the File/Import TRNSYS Input File function in 
*** TrnsysStudio to update the project. 
*** 
*** If you have problems, questions or suggestions please contact your local 
*** TRNSYS distributor or mailto:software@cstb.fr 
*** 
*******************************************************************************


*******************************************************************************
*** Units 
*******************************************************************************

*******************************************************************************
*** Control cards
*******************************************************************************
* START, STOP and STEP
CONSTANTS 3
START=0
STOP=8760
STEP=0.250
*					SIMULATION Start time	End time	Time step
SIMULATION 	 START	 STOP	 STEP
*					Integration	 Convergence
TOLERANCES 0.001 0.001
*					Max iterations	 Max warnings	 Trace limit
LIMITS 30 30 30
*					TRNSYS numerical integration solver method
DFQ 1
*					TRNSYS output file width, number of characters
WIDTH 80
*					NOLIST statement
LIST 
*					MAP statement
MAP 
*					Solver statement	Minimum relaxation factor	Maximum relaxation factor
SOLVER 0 1 1
*					DEBUG statement
NAN_CHECK 0
OVERWRITE_CHECK 0
TIME_REPORT 0
*					EQUATION SOLVER statement
EQSOLVER 1
* User defined CONSTANTS 
*$USER_CONSTANTS

*$USER_CONSTANTS_END


* Model "Load profile" (Type 14)
* 

UNIT 9 TYPE 14	 Load profile
*$UNIT_NAME Load profile
*$MODEL .\Utility\Forcing Functions\General\Type14h.tmf
*$POSITION 201 562
*$LAYER Main # 
PARAMETERS 28
* 1 Initial value of time
0
* 2 Initial value of function
0
* 3 Time at point
7
* 4 Value at point
0
* 5 Time at point
7
* 6 Value at point
0.2
* 7 Time at point
9
* 8 Value at point
0.2
* 9 Time at point
9
* 10 Value at point
0
* 11 Time at point
11
* 12 Value at point
0
* 13 Time at point
11
* 14 Value at point
0.1
* 15 Time at point
13
* 16 Value at point
0.1
* 17 Time at point
13
* 18 Value at point
0
* 19 Time at point
18
* 20 Value at point
0
* 21 Time at point
18
* 22 Value at point
0.1
* 23 Time at point
22
* 24 Value at point
0.1
* 25 Time at point
22
* 26 Value at point
0
* 27 Time at point
24
* 28 Value at point
0
*------------------------------------------------------------------------------

* EQUATIONS "Daily load"
* 
EQUATIONS 2
mdDHW = [9,1]*(200*(1-[33,8])*(1-[33,9]) + 100*[33,8]*(1-[33,9]))  
TCold = 15
*$UNIT_NAME Daily load
*$LAYER Main
*$POSITION 355 562
*$UNIT_NUMBER 10

*------------------------------------------------------------------------------


* Model "Montreal " (Type 15)
* 

UNIT 2 TYPE 15	 Montreal 
*$UNIT_NAME Montreal 
*$MODEL .\Weather Data Reading and Processing\Standard Format\Meteonorm Files (TM2)\Type15-6.tmf
*$POSITION 62 70
*$LAYER Weather / Data Files # 
PARAMETERS 9
* 1 File Type
6
* 2 Logical unit
43
* 3 Tilted Surface Radiation Mode
3
* 4 Ground reflectance - no snow
0.3
* 5 Ground reflectance - snow cover
0.3
* 6 Number of surfaces
1
* 7 Tracking mode
1
* 8 Slope of surface
45
* 9 Azimuth of surface
0
*** External files
ASSIGN "C:\TRNSYS18\Weather\Meteonorm\North-America\CA-QC-Montreal-716270.tm2" 43
*|? Which file contains the Meteonorm weather data? |1000
*------------------------------------------------------------------------------

* Model "mix" (Type 11)
* 

UNIT 19 TYPE 11	 mix
*$UNIT_NAME mix
*$MODEL .\Hydronics\Tee-Piece Flow Mixer\Other Fluids\Type11h.tmf
*$POSITION 906 372
*$LAYER Main # 
PARAMETERS 1
* 1 Tee piece mode
1
INPUTS 4
* Type138:Outlet fluid temperature ->Temperature at inlet 1
35,1 
* Type138:Outlet fluid flow rate ->Flow rate at inlet 1
35,2 
* div:Temperature at outlet 2 ->Temperature at inlet 2
23,3 
* div:Flow rate at outlet 2 ->Flow rate at inlet 2
23,4 
*** INITIAL INPUT VALUES
20.0 100.0 20.0 100.0 
*------------------------------------------------------------------------------

* Model "controller" (Type 165)
* 

UNIT 24 TYPE 165	 controller
*$UNIT_NAME controller
*$MODEL .\Controllers\Differential Controller w_ Hysteresis\for Temperatures\Type165.tmf
*$POSITION 293 314
*$LAYER Main # 
*$# 
*$# 
PARAMETERS 2
* 1 No. of oscillations
5
* 2 High limit cut-out
100.0
INPUTS 5
* Collectors:Outlet Temperature ->Upper input temperature Th
3,1 
* tank:Temperature at outlet 1 ->Lower input temperature Tl
20,1 
* tank:Temperature at outlet 2 ->Monitoring temperature Tin
20,3 
* [unconnected] Upper dead band dT
0,0
* [unconnected] Lower dead band dT
0,0
*** INITIAL INPUT VALUES
20.0 10.0 20.0 10.0 2.0 
*------------------------------------------------------------------------------

* Model "Collectors" (Type 539)
* 

UNIT 3 TYPE 539	 Collectors
*$UNIT_NAME Collectors
*$MODEL .\Solar Library (TESS)\Glazed Flat Plate Collectors\OG100 Quadratic Efficiency Approach\Type539.tmf
*$POSITION 410 172
*$LAYER Main # 
*$# This component sets the flowrate for all connected flow loop components if the variable speed option is enabled.
PARAMETERS 16
* 1 Number in Series
1
* 2 Collector Area
Ac
* 3 Fluid Specific Heat
4.19
* 4 Collector Test Mode
3
* 5 Intercept Efficiency (a0)
0.717
* 6 1st Order Efficiency Coefficient (a1)
14.45076
* 7 2nd Order Efficiency Coefficient (a2)
0.06739
* 8 Tested Flowrate per Unit Area
71.32
* 9 Fluid Specific Heat at Test Conditions
4.190
* 10 1st-Order IAM Coefficient
0.11
* 11 2nd-Order IAM Coefficient
0.051
* 12 Minimum Flowrate
0.0
* 13 Maximum Flowrate
10000.0
* 14 Capacitance of Collector
100.0
* 15 Number of Nodes
10
* 16 Initial Temperature
20.0
INPUTS 10
* Pump:Outlet fluid temperature ->Inlet Temperature
4,1 
* Pump:Outlet flow rate ->Inlet Flowrate
4,2 
* Montreal :Dry bulb temperature ->Ambient Temperature
2,1 
* Montreal :Beam radiation for surface ->Beam Radiation on the Tilted Surface
2,25 
* Montreal :Sky diffuse radiation for surface ->Sky Diffuse Radiation on Tilted Surface
2,26 
* Montreal :Ground reflected diffuse radiation for surface ->Ground-Reflected Diffuse Radiation on Tilted Surface
2,27 
* Montreal :Angle of incidence for surface ->Incidence Angle
2,29 
* Montreal :Slope of surface ->Collector Slope
2,30 
* [unconnected] Pump Control Specification
0,0
* [unconnected] Outlet Temperature Setpoint
0,0
*** INITIAL INPUT VALUES
20 0 10 0.0 0.0 0.0 45 0 0 60.0 
*------------------------------------------------------------------------------

* Model "tank" (Type 158)
* 

UNIT 20 TYPE 158	 tank
*$UNIT_NAME tank
*$MODEL .\Thermal Storage\Constant Volume Liquid Storage\Vertical Tank\No HX\Type158.tmf
*$POSITION 585 367
*$LAYER Weather - Data Files # 
*$# Cylindrical Storage Tank
PARAMETERS 17
* 1 Tank volume
Vreservoir
* 2 Tank height
hreservoir
* 3 Number of tank nodes
6
* 4 Top loss coefficient
Ures
* 5 Edge loss coefficient
Ures
* 6 Bottom loss coefficient
Ures
* 7 Fluid specific heat
4.19
* 8 Fluid density
1000
* 9 Fluid thermal conductivity
2.224
* 10 Height fraction of inlet 1
0.67
* 11 Height fraction of outlet 1
0.
* 12 Height fraction of inlet 2
0.
* 13 Height fraction of outlet 2
1.
* 14 Number of thermostats
1
* 15 Height fraction of thermostat
0.75
* 16 Number of auxiliary heat inputs
1
* 17 Height fraction of auxiliary input
0.75
INPUTS 8
* Pump-2:Outlet fluid temperature ->Inlet temperature for port 1
31,1 
* Pump-2:Outlet flow rate ->Inlet flow rate for port 1
31,2 
* div:Temperature at outlet 1 ->Inlet temperature for port 2
23,1 
* div:Flow rate at outlet 1 ->Inlet flow rate for port 2
23,2 
* [unconnected] Top loss temperature
0,0
* [unconnected] Edge loss temperature
0,0
* [unconnected] Bottom loss temperature
0,0
* [unconnected] Auxiliary heat input
0,0
*** INITIAL INPUT VALUES
20. 0. 20. 0. 20. 20. 20. 0. 
DERIVATIVES 6
* 1 Initial tank temperature for node-1
20.
* 2 Initial tank temperature for node-2
20.
* 3 Initial tank temperature for node-3
20.
* 4 Initial tank temperature for node-4
20.
* 5 Initial tank temperature for node-5
20.
* 6 Initial tank temperature for node-6
20.
*------------------------------------------------------------------------------

* Model "Pump" (Type 114)
* 

UNIT 4 TYPE 114	 Pump
*$UNIT_NAME Pump
*$MODEL .\Hydronics\Pumps\Single Speed\Type114.tmf
*$POSITION 219 186
*$LAYER Main # 
*$# SINGLE-SPEED PUMP
PARAMETERS 4
* 1 Rated flow rate
debit
* 2 Fluid specific heat
4.19
* 3 Rated power
0
* 4 Motor heat loss fraction
0.0
INPUTS 5
* Type91:Source side outlet temperature ->Inlet fluid temperature
30,1 
* Type91:Source side flow rate ->Inlet fluid flow rate
30,2 
* controller:Output control function ->Control signal
24,1 
* [unconnected] Overall pump efficiency
0,0
* [unconnected] Motor efficiency
0,0
*** INITIAL INPUT VALUES
20 0 1 0.6 0.9 
*------------------------------------------------------------------------------

* Model "Plotter 1" (Type 65)
* 

UNIT 5 TYPE 65	 Plotter 1
*$UNIT_NAME Plotter 1
*$MODEL .\Output\Online Plotter\Online Plotter With File\No Units\Type65c.tmf
*$POSITION 552 50
*$LAYER Outputs # 
PARAMETERS 12
* 1 Nb. of left-axis variables
2
* 2 Nb. of right-axis variables
1
* 3 Left axis minimum
0
* 4 Left axis maximum
150
* 5 Right axis minimum
0
* 6 Right axis maximum
1000
* 7 Number of plots per simulation
nPlots
* 8 X-axis gridpoints
7
* 9 Shut off Online w/o removing
0
* 10 Logical Unit for output file
35
* 11 Output file units
0
* 12 Output file delimiter
0
INPUTS 3
* Pump:Outlet fluid temperature ->Left axis variable-1
4,1 
* Collectors:Outlet Temperature ->Left axis variable-2
3,1 
* Collectors:Outlet Flowrate ->Right axis variable
3,2 
*** INITIAL INPUT VALUES
T_collIn T_collOut mColl 
LABELS  3
"Temperature [C]"
"Mass Flow Rate [kg/h]"
"source side"
*** External files
ASSIGN "***.plt1" 35
*|? What file should the online print to? |1000
*------------------------------------------------------------------------------

* Model "Plotter 2" (Type 65)
* 

UNIT 8 TYPE 65	 Plotter 2
*$UNIT_NAME Plotter 2
*$MODEL .\Output\Online Plotter\Online Plotter With File\No Units\Type65c.tmf
*$POSITION 1214 306
*$LAYER Outputs # 
PARAMETERS 12
* 1 Nb. of left-axis variables
6
* 2 Nb. of right-axis variables
1
* 3 Left axis minimum
0
* 4 Left axis maximum
110
* 5 Right axis minimum
0
* 6 Right axis maximum
100
* 7 Number of plots per simulation
nPlots
* 8 X-axis gridpoints
7
* 9 Shut off Online w/o removing
0
* 10 Logical Unit for output file
37
* 11 Output file units
0
* 12 Output file delimiter
0
INPUTS 7
* tank:Tank nodal temperature-1 ->Left axis variable-1
20,15 
* tank:Tank nodal temperature-6 ->Left axis variable-2
20,20 
* calcul_Tout:T_douche2 ->Left axis variable-3
T_douche2
* Pump-2:Outlet fluid temperature ->Left axis variable-4
31,1 
* tank:Temperature at outlet 1 ->Left axis variable-5
20,1 
* tank:Temperature at outlet 2 ->Left axis variable-6
20,3 
* mix:Outlet flow rate ->Right axis variable
19,2 
*** INITIAL INPUT VALUES
TTop Tbottom TDHW Tin_res Tout_res_capteur Tout_res_load mDHW 
LABELS  3
"Temperature [C]"
"Flow Rate [kg/h]"
"load side"
*** External files
ASSIGN "***.plt2" 37
*|? What file should the online print to? |1000
*------------------------------------------------------------------------------

* EQUATIONS "parametres"
* 
EQUATIONS 10
nPlots = 1
N = 2
Ac = N*2.874
debit = 71.32*Ac
Vreservoir = 75*Ac/1000
hreservoir = 2
Dreservoir = (4*Vreservoir/ (3.1416*hreservoir))^(0.5)   
Areservoir = 2*3.1416*Dreservoir^2/4 + 3.1416*Dreservoir*hreservoir
UA = 0.875 * 0.0525 * (Vreservoir * 1000)^(2/3) / 24 / 45 * 3600    
Ures = UA/Areservoir
*$UNIT_NAME parametres
*$LAYER Outputs
*$POSITION 732 64
*$UNIT_NUMBER 25

*------------------------------------------------------------------------------


* EQUATIONS "Equa"
* 
EQUATIONS 2
qLoad = mdDHW*4.19*([19,1]-TCold)
qLoss = [20,8]+[20,9]+[20,10]
*$UNIT_NAME Equa
*$LAYER Outputs
*$POSITION 912 714
*$UNIT_NUMBER 27

*------------------------------------------------------------------------------


* Model "tempering valve control" (Type 115)
* 

UNIT 28 TYPE 115	 tempering valve control
*$UNIT_NAME tempering valve control
*$MODEL .\Controllers\Tempering Valve Control\Heating Mode\Type115.tmf
*$POSITION 593 458
*$LAYER Main # 
PARAMETERS 1
* 1 # Oscillations Permitted
5
INPUTS 3
* [unconnected] Setpoint Temperature
0,0
* Type138:Outlet fluid temperature ->Source Temperature
35,1 
* Daily load:TCold ->Tempering Fluid Temperature (Return Temperature)
TCold
*** INITIAL INPUT VALUES
45 10.0 20.0 
*------------------------------------------------------------------------------

* Model "div" (Type 11)
* 

UNIT 23 TYPE 11	 div
*$UNIT_NAME div
*$MODEL .\Hydronics\Flow Diverter\Other Fluids\Type11f.tmf
*$POSITION 586 580
*$LAYER Main # 
PARAMETERS 1
* 1 Flow diverter mode
2
INPUTS 3
* Daily load:TCold ->Inlet temperature
TCold
* Daily load:mdDHW ->Inlet flow rate
mdDHW
* tempering valve control:Fraction to Bypass Heat Source ->Control signal
28,2 
*** INITIAL INPUT VALUES
20.0 100.0 0.5 
*------------------------------------------------------------------------------

* Model "Type25c" (Type 25)
* 

UNIT 29 TYPE 25	 Type25c
*$UNIT_NAME Type25c
*$MODEL .\Output\Printer\Unformatted\No Units\Type25c.tmf
*$POSITION 1203 609
*$LAYER Outputs # 
PARAMETERS 10
* 1 Printing interval
STEP
* 2 Start time
START
* 3 Stop time
STOP
* 4 Logical unit
45
* 5 Units printing mode
0
* 6 Relative or absolute start time
0
* 7 Overwrite or Append
-1
* 8 Print header
-1
* 9 Delimiter
0
* 10 Print labels
1
INPUTS 7
* Montreal :Total tilted surface radiation for surface ->It
2,24 
* Collectors:Useful Energy Gain ->qutile 
3,3 
* tank:Energy delivered via port 1 ->qinres
20,6 
* tank:Energy delivered via port 2 ->qoutres
20,7 
* Type138:Rate of energy delivery to fluid stream ->qaux
35,3 
* Equa:qLoss ->qpertes
qLoss
* tank:Tank energy storage rate ->DeltaE
20,12 
*** INITIAL INPUT VALUES
It Useful Energy Energy Auxiliary qLoss DeltaE 
*** External files
ASSIGN "devoir3_aux.txt" 45
*|? Output file for printed results |1000
*------------------------------------------------------------------------------

* Model "Type91" (Type 91)
* 

UNIT 30 TYPE 91	 Type91
*$UNIT_NAME Type91
*$MODEL .\Hydronics\Heat Exchangers\Constant Effectiveness\Type91.tmf
*$POSITION 459 287
*$LAYER Main # 
PARAMETERS 3
* 1 Heat exchanger effectiveness
0.9
* 2 Specific heat of source side fluid
4.19
* 3 Specific heat of load side fluid
4.19
INPUTS 4
* Collectors:Outlet Temperature ->Source side inlet temperature
3,1 
* Collectors:Outlet Flowrate ->Source side flow rate
3,2 
* tank:Temperature at outlet 1 ->Load side inlet temperature
20,1 
* tank:Flow rate at outlet 1 ->Load side flow rate
20,2 
*** INITIAL INPUT VALUES
20.0 100.0 20.0 100.0 
*------------------------------------------------------------------------------

* Model "Pump-2" (Type 114)
* 

UNIT 31 TYPE 114	 Pump-2
*$UNIT_NAME Pump-2
*$MODEL .\Hydronics\Pumps\Single Speed\Type114.tmf
*$POSITION 567 282
*$LAYER Main # 
*$# SINGLE-SPEED PUMP
PARAMETERS 4
* 1 Rated flow rate
debit
* 2 Fluid specific heat
4.19
* 3 Rated power
0
* 4 Motor heat loss fraction
0.0
INPUTS 5
* Type91:Load side outlet temperature ->Inlet fluid temperature
30,3 
* Type91:Load side flow rate ->Inlet fluid flow rate
30,4 
* controller:Output control function ->Control signal
24,1 
* [unconnected] Overall pump efficiency
0,0
* [unconnected] Motor efficiency
0,0
*** INITIAL INPUT VALUES
20 0 1 0.6 0.9 
*------------------------------------------------------------------------------

* Model "irradiation_solaire" (Type 25)
* 

UNIT 26 TYPE 25	 irradiation_solaire
*$UNIT_NAME irradiation_solaire
*$MODEL .\Output\Printer\Unformatted\No Units\Type25c.tmf
*$POSITION 258 439
*$LAYER Outputs # 
PARAMETERS 10
* 1 Printing interval
STEP
* 2 Start time
START
* 3 Stop time
STOP
* 4 Logical unit
47
* 5 Units printing mode
0
* 6 Relative or absolute start time
0
* 7 Overwrite or Append
-1
* 8 Print header
-1
* 9 Delimiter
0
* 10 Print labels
1
INPUTS 5
* Montreal :Dry bulb temperature ->Tamb
2,1 
* Montreal :Total horizontal radiation ->I
2,18 
* Montreal :Horizontal beam radiation ->Ib
2,19 
* Montreal :Total diffuse radiation on the horizontal ->Id
2,22 
* Montreal :Total tilted surface radiation for surface ->It
2,24 
*** INITIAL INPUT VALUES
Total Useful Energy Energy Total 
*** External files
ASSIGN "fichier_meteo.txt" 47
*|? Output file for printed results |1000
*------------------------------------------------------------------------------

* EQUATIONS "calcul_Tout"
* 
EQUATIONS 1
T_douche2 = gt([19,2],0)*[19,1]
*$UNIT_NAME calcul_Tout
*$LAYER Outputs
*$POSITION 1022 351
*$UNIT_NUMBER 32

*------------------------------------------------------------------------------


* Model "Type95c" (Type 95)
* 

UNIT 33 TYPE 95	 Type95c
*$UNIT_NAME Type95c
*$MODEL .\Utility\Holiday Calculator\User Defined Holidays\Type95c.tmf
*$POSITION 281 628
*$LAYER Main # 
PARAMETERS 32
* 1 Mode
2
* 2 Year
2023
* 3 Initial simulation start time
1.0
* 4 Daylight savings time flag
1
* 5 Month of holiday-1
7
* 6 Date of holiday-1
11
* 7 Month of holiday-2
7
* 8 Date of holiday-2
12
* 9 Month of holiday-3
7
* 10 Date of holiday-3
13
* 11 Month of holiday-4
7
* 12 Date of holiday-4
14
* 13 Month of holiday-5
7
* 14 Date of holiday-5
15
* 15 Month of holiday-6
7
* 16 Date of holiday-6
16
* 17 Month of holiday-7
7
* 18 Date of holiday-7
17
* 19 Month of holiday-8
7
* 20 Date of holiday-8
18
* 21 Month of holiday-9
7
* 22 Date of holiday-9
19
* 23 Month of holiday-10
7
* 24 Date of holiday-10
20
* 25 Month of holiday-11
7
* 26 Date of holiday-11
21
* 27 Month of holiday-12
7
* 28 Date of holiday-12
22
* 29 Month of holiday-13
7
* 30 Date of holiday-13
23
* 31 Month of holiday-14
7
* 32 Date of holiday-14
24
*------------------------------------------------------------------------------

* Model "Plotter 2-2" (Type 65)
* 

UNIT 34 TYPE 65	 Plotter 2-2
*$UNIT_NAME Plotter 2-2
*$MODEL .\Output\Online Plotter\Online Plotter With File\No Units\Type65c.tmf
*$POSITION 447 777
*$LAYER Outputs # 
PARAMETERS 12
* 1 Nb. of left-axis variables
2
* 2 Nb. of right-axis variables
0
* 3 Left axis minimum
0
* 4 Left axis maximum
2
* 5 Right axis minimum
0
* 6 Right axis maximum
100
* 7 Number of plots per simulation
nPlots
* 8 X-axis gridpoints
7
* 9 Shut off Online w/o removing
0
* 10 Logical Unit for output file
48
* 11 Output file units
0
* 12 Output file delimiter
0
INPUTS 2
* Type95c:Weekend Flag ->Left axis variable-1
33,8 
* Type95c:Holiday flag ->Left axis variable-2
33,9 
*** INITIAL INPUT VALUES
Week-end Vacances 
LABELS  3
"flag"
"Flow Rate [kg/h]"
"flag vanaces"
*** External files
ASSIGN "***.plt2" 48
*|? What file should the online print to? |1000
*------------------------------------------------------------------------------

* Model "Type138" (Type 138)
* 

UNIT 35 TYPE 138	 Type138
*$UNIT_NAME Type138
*$MODEL .\HVAC\Fluid Heater\Type138.tmf
*$POSITION 791 319
*$LAYER Main # 
PARAMETERS 3
* 1 Maximum heating rate
1500.0
* 2 Specific heat of fluid
4.19
* 3 Efficiency of auxiliary heater
0.8
INPUTS 4
* tank:Temperature at outlet 2 ->Inlet fluid temperature
20,3 
* tank:Flow rate at outlet 2 ->Fluid mass flow rate
20,4 
* [unconnected] Control Function
0,0
* [unconnected] Setpoint temperature
0,0
*** INITIAL INPUT VALUES
20.0 100.0 1 60.0 
*------------------------------------------------------------------------------

END
*!LINK_STYLE
*!LINK 35:29
*!CONNECTION_SET 40:40:0:0:5:0:0:0:1:760,333:790,333:790,581:1134,581
*!LINK 35:28
*!CONNECTION_SET 0:40:40:0:2:0:0:0:1:820,254:719,254:719,353:659,353
*!LINK 35:19
*!CONNECTION_SET 40:40:0:0:2,1:0:0:0:1:717,333:764,333:764,346:792,346
*!LINK 20:35
*!CONNECTION_SET 40:0:0:40:2,1:0:0:0:1:608,341:739,341:739,333:774,333
*!LINK 33:10
*!CONNECTION_SET 32:0:0:40:3,2:0:0:0:1:296,602:325,602:325,596:312,596:312,573:335,573
*!LINK 19:8
*!CONNECTION_SET 40:0:0:40:7:4227200:2:0:1:875,346:921,346:921,315:1122,315:1122,317:1140,317
*!LINK 31:8
*!CONNECTION_SET 40:20:0:20:4:4227200:2:0:1:589,273:1176,273:1176,297:1194,297
*!LINK 24:31
*!CONNECTION_SET 40:0:0:40:3:0:2:0:0:316,288:499,288:549,293
*!LINK 31:20
*!CONNECTION_SET 40:20:0:0:2,1:8388736:0:2:1:589,273:606,273:606,331:541,331:541,341:568,341
*!LINK 30:31
*!CONNECTION_SET 40:20:0:20:2,1:8388736:0:2:1:482,278:528,278:528,273:549,273
*!LINK 20:30
*!CONNECTION_SET 0:40:40:40:4,3:6886956:0:2:0:555,386:467,387:469,303
*!LINK 30:4
*!CONNECTION_SET 0:40:0:20:2,1:6886956:0:2:0:442,298:174,293:174,173:201,177
*!LINK 3:30
*!CONNECTION_SET 72:60:0:0:2,1:8388736:0:2:1:449,193:466,193:466,248:408,248:408,258:442,258
*!LINK 3:29
*!CONNECTION_SET 72:60:0:0:2:4227200:2:0:1:449,193:1155,193:1155,581:1188,581
*!LINK 20:29
*!CONNECTION_SET 40:40:0:0:7,4,3:4227200:2:0:1:608,381:862,381:862,581:1188,581
*!LINK 2:29
*!CONNECTION_SET 40:40:40:40:1:8421440:2:0:1:82,80:117,80:117,596:1252,596:1252,620:1223,620
*!LINK 23:8
*!CONNECTION_SET 40:20:0:20::4227200:2:0:0:609,574:1043,574:1043,297:1194,297
*!LINK 23:20
*!CONNECTION_SET 40:0:40:40:4,3:8388608:0:2:0:514,538:575,538:575,365:513,365
*!LINK 23:19
*!CONNECTION_SET 40:40:0:40:4,3:8388608:0:2:1:516,578:768,578:768,370:796,370
*!LINK 10:23
*!CONNECTION_SET 40:20:0:20:1,2:8388608:0:2:1:375,553:543,553:543,574:569,574
*!LINK 3:24
*!CONNECTION_SET 36:60:20:0:1:0:2:0:0:397,173:392,201:296,201:296,288
*!LINK 20:24
*!CONNECTION_SET 0:20:40:20:3,2:0:2:0:1:568,361:338,361:338,308:316,308
*!LINK 24:4
*!CONNECTION_SET 0:20:20:40:3:0:2:0:0:267,314:212,314:212,203
*!LINK 4:3
*!CONNECTION_SET 40:20:0:60:2,1:6886956:0:2:1:289,174:402,174:402,190:425,190
*!LINK 9:10
*!CONNECTION_SET 37:20:0:20:1:8388608:0:2:1:267,522:360,522:383,522
*!LINK 2:3
*!CONNECTION_SET 40:20:0:0:6,5,4,7,8,3:32768:2:0:1:130,57:402,57:402,130:425,130
*!LINK 20:8
*!CONNECTION_SET 40:20:0:20:6,5,2,1:8421440:2:0:1:608,361:862,361:862,297:1194,297
*!LINK 3:5
*!CONNECTION_SET 72:0:0:20:3,2:8421440:2:0:1:465,130:580,130:580,38
*!LINK 4:5
*!CONNECTION_SET 20:0:0:20:1:8421440:2:0:1:269,154:269,38:580,38
*!LINK 2:26
*!CONNECTION_SET 40:40:0:0:5,3,4,2,1:8421440:2:0:1:82,80:117,80:117,410:238,410
*!LINK 32:8
*!CONNECTION_SET 40:0:20:40:3:4227200:2:0:1:988,325:1017,325:1017,341:1160,341:1160,317
*!LINK 19:32
*!CONNECTION_SET 40:20:20:40:2,1:4227200:2:0:1:875,366:897,366:897,389:968,389:968,365
*!LINK 19:27
*!CONNECTION_SET 40:20:0:20:3:4227200:2:0:1:786,351:808,351:808,663:732,663:732,693:750,693
*!LINK 20:27
*!CONNECTION_SET 40:20:0:20:6,5,4:4227200:2:0:1:515,345:769,345:769,692:800,692
*!LINK 27:29
*!CONNECTION_SET 40:0:0:40:6:4227200:2:0:1:879,688:1101,688:1101,620:1134,620
*!LINK 10:27
*!CONNECTION_SET 40:20:0:20:2,1:4227200:2:0:1:375,553:399,553:399,708:893,708
*!LINK 33:34
*!CONNECTION_SET 32:32:0:0:2,1:4227200:2:0:1:296,634:409,634:409,748:427,748
*!LINK 10:28
*!CONNECTION_SET 40:20:0:20:3:0:2:0:1:375,553:514,553:514,452:573,452
*!LINK 28:23
*!CONNECTION_SET 20:40:20:0:3:0:2:0:0:593,472:589,554
*!LINK_STYLE_END
*!TEXT_COMPONENT 958:21:958:21:1097:107:Times New Roman:10:13:0:400:0:0:0:255:2:2:0:4:1
*Pour voir les sorties, activez le Layer Output 
*!TEXT_COMPONENT_END
